* written by unit test

* cell C1
* pin p1
* pin p2
* pin p3
.SUBCKT C1 1 2 4
* net 1 n1
* net 2 n2
* net 3 n3
* net 4 n4
* device instance $1 r0 *1 0,0 M3CLS
M$1 3 4 1 1 M3CLS L=0.25U W=0.18U AS=1.2P AD=0.75P PS=2.2U PD=1.75U
* device instance $2 r0 *1 0,0 M3CLS
M$2 2 4 3 3 M3CLS L=1.4U W=0.25U AS=1.3P AD=0.85P PS=2.3U PD=1.85U
.ENDS C1
