* written by unit test

* cell C1
* pin p1
* pin p2
.SUBCKT C1 1 2
* net 1 n1
* net 2 n2
* net 3 n3
* device instance $1 r0 *1 0,0 CCLS
C$1 1 3 1.7e-12
* device instance $2 r0 *1 0,0 CCLS
C$2 3 2 4.2e-14
.ENDS C1
