* written by unit test

* cell C1
* pin p1
* pin p2
.SUBCKT C1 1 2
* net 1 n1
* net 2 n2
* net 3 n3
* device instance $1 0,0 RCLS
R$1 1 3 1.7
* device instance $2 0,0 RCLS
R$2 3 2 4.2e-05
.ENDS C1
