
.SUBCKT TOP
X$1 VDD VSS A 1 1 3 INVCHAIN
X$2 VDD VSS 3 2 2 Q INV2
.ENDS TOP

* cell INVCHAIN
.SUBCKT INVCHAIN VDD VSS A1 Q1 A2 Q2
X$2 VDD VSS A1 1 1 Q1 INV2
X$3 VDD VSS A2 2 2 Q2 INV2
.ENDS INVCHAIN

* cell INV2
.SUBCKT INV2 VDD VSS A1 Q1 A2 Q2 
X$1 VDD VSS A1 Q1 INV
X$2 VDD VSS A2 Q2 INV
.ENDS INV2

* cell INV
.SUBCKT INV VDD VSS A Q 
M$1 VDD A Q VDD PMOS L=0.25U W=0.95U
M$3 VSS A Q VSS NMOS L=0.25U W=0.95U
.ENDS INV

